<?xml version="1.0" encoding="UTF-8"?>

<!-- generated on 2026-03-20 12:36:47 by Eclipse SUMO duarouter Version 1.12.0
<configuration xmlns:xsi="http://www.w3.org/2001/XMLSchema-instance" xsi:noNamespaceSchemaLocation="http://sumo.dlr.de/xsd/duarouterConfiguration.xsd">

    <input>
        <net-file value="map.net.xml"/>
        <route-files value="map.trips.xml"/>
    </input>

    <output>
        <output-file value="map.rou.xml"/>
        <alternatives-output value="map.rou.alt.xml"/>
    </output>

    <time>
        <begin value="0"/>
        <end value="1000"/>
    </time>

    <report>
        <no-warnings value="true"/>
        <ignore-errors value="true"/>
        <no-step-log value="true"/>
    </report>

</configuration>
-->

<routes xmlns:xsi="http://www.w3.org/2001/XMLSchema-instance" xsi:noNamespaceSchemaLocation="http://sumo.dlr.de/xsd/routes_file.xsd">
    <vehicle id="0" depart="0.00">
        <route edges="251492658#22 251492658#23 -251492658#23 -251492658#22 -251492658#21 -251492658#19 -251492658#18 -251492658#17 -251492658#16 -251492658#15 -251492658#14 -251492658#13 -251492658#12 -251492658#11 -251492658#10 -251492658#9 -251492658#8 -251492658#7 -251492658#6 -251492658#4 -251492658#3 -251492658#2 -251492658#1 -251492658#0 38757909#0 38757909#1 38757909#2 224618934#7 224618934#8 224618934#9 224618934#10 1311251824#0 1311251823#0 1311251823#1 148016866#0 148016866#1 148016873#0 461556532 23076927#0 23076927#3 23076927#5 23076927#6 36907521#1 36907521#2 -36897656#22 36907546#0 36907546#1 36907546#2 36907546#3 -1094732593#2 -1094732593#1 -1094732593#0 405141229#0 405141229#1 405141229#2 405141229#3 -1094745007#1"/>
    </vehicle>
    <vehicle id="1" depart="1.00">
        <route edges="-38541558#6 38541558#6 38541558#8 38541558#10 -36907545#10 36907536#1 36907536#2 36907536#3 36907536#4 36907536#5 36907536#6 36907536#7 -36907536#7"/>
    </vehicle>
    <vehicle id="2" depart="2.00">
        <route edges="36907513 -36907513 36897656#6 36897656#7 36897656#8 36897656#9 36897656#11 36897656#12 36897656#14 36907545#0 38541582#0 38541582#1 38541582#2 38541582#3 38541582#4 36897653#7"/>
    </vehicle>
    <vehicle id="3" depart="3.00">
        <route edges="38757929#7 38757909#1 38757909#2 224618934#7 224618934#8 224618934#9 224618934#10 1311251824#0 1311251823#0 1311251823#1 148016866#0 148016866#1 36897704#0 36897704#1 36897704#2 36897704#3 638928393#0 638928393#1 638928393#3 36897679#1 688824223#0 688824223#1 688824223#2 688824223#3 688824223#4 688824223#5 172851206#0 172851206#1 -172851206#1 -172851206#0"/>
    </vehicle>
    <vehicle id="4" depart="4.00">
        <route edges="1094460062#0 -1094460059 23081473#2 23081595#7 23081595#8 23081595#10 763175324#4 143368260#0 143368260#2 688824223#0 161984942 23076921#0 23076921#1 1347949977 -36907545#11 -36907545#10 -36907545#9 -36907545#7 36907574#0 36907574#2 36907574#3 1095075529 -1095075529"/>
    </vehicle>
    <vehicle id="5" depart="5.00">
        <route edges="-36907510#2 36907515 -36897656#8 -36897656#7 -36897656#6 -36897656#5 -36897656#4 -36897656#2 461556532 148016888#0 22893740#1 22893740#2 154340361#0 154340361#1 1315881698#0"/>
    </vehicle>
    <vehicle id="6" depart="6.00">
        <route edges="-1094732597 -405141229#0 -36907529#4 -36907529#3 -36907529#2 -36907529#0 -36897656#24 -36897656#23 -36897656#22 -36897656#21 -36897656#19 36907519 -36907510#5"/>
    </vehicle>
    <vehicle id="7" depart="7.00">
        <route edges="298037893#3 -38757900#2 -38757900#1 -38757900#0 -1249874881 -251492658#14 -251492658#13 -251492658#12 -251492658#11 -251492658#10 -251492658#9 -251492658#8 -251492658#7 -251492658#6 -251492658#4 -251492658#3 -251492658#2 -251492658#1 -251492658#0 38757909#0 38757909#1 38757909#2 224618934#7 224618934#8 224618934#9 224618934#10 1311251824#0 1311251823#0 1311251823#1 148016866#0 148016866#1 148016873#0 461556532 148016888#0 22893740#1 22893740#2 154340361#0 154340361#1 154340361#2"/>
    </vehicle>
    <vehicle id="8" depart="8.00">
        <route edges="-36907510#5 -36907518 -36897656#14 -36897656#12 -36897656#11 -36897656#9 -36897656#8 -36897656#7 -36897656#6 -36897656#5 -36897656#4 -36897656#2 461556532 148016888#0 22893740#1 22893740#2 154340361#0 52033011#0 52033011#8 52033011#9 38757907#0 38757907#1 38757907#3 38757907#4 38757907#5 38757905#3 208745497#0 208745497#1"/>
    </vehicle>
    <vehicle id="9" depart="9.00">
        <route edges="38541569#0 38541569#1 36907545#5 36907545#6 36907545#7 36907545#9 36907545#10 36907545#11 111867007#0 111867007#1 111867007#3 111867007#5 111867007#6 52244624#0 638928393#0 638928393#1 638928393#3 36897679#1 688824223#0 688824223#1 688824223#2 -1094460062#3"/>
    </vehicle>
    <vehicle id="10" depart="10.00">
        <route edges="38541565#2 36907529#13 36907529#14 36907529#15 -36907531#3 -36897677#4 -36897677#3 -36897677#2 -36897677#1 -36897677#0 1086234124#1 1086234123#0 244304928#0 244304928#1 244304928#2 -36897671#3 -36897671#2 36897668#1"/>
    </vehicle>
    <vehicle id="11" depart="11.00">
        <route edges="-38757914 38757914 38757911#0 38757911#1 224618934#9 224618934#10 1311251824#0 1311251823#0 1311251823#1 148016866#0 148016866#1 148016873#0 461556532 23076927#0 23076927#3 23076927#5 23076927#6 36907521#1 36907521#2 36897656#23 36897656#24 36907529#0 36907529#2 -36897653#2"/>
    </vehicle>
    <vehicle id="12" depart="12.00">
        <route edges="52244624#0 1214076611 37898955#0 461556532 148016888#0 22893740#1 22893740#2 154340361#0 52033011#0 52033011#8 52033011#9 38757907#0 38757907#1 38757907#3 38757907#4 38757907#5 38757907#6 -38757929#2"/>
    </vehicle>
    <vehicle id="14" depart="14.00">
        <route edges="38757904#2 38757904#3 38757904#4 38757904#5 38757904#6 38757904#7 -38757907#4 -38757907#3 38757911#0 38757911#1 224618934#9 224618934#10 1311251824#0 1311251823#0 1311251823#1 148016866#0 148016866#1 36897704#0 36897704#1 36897704#2 36897704#3 638928393#0 638928393#1 638928393#3 36897679#1 688824223#0 161984942 23076921#0"/>
    </vehicle>
    <vehicle id="15" depart="15.00">
        <route edges="38541568#0 -38541568#0 -36907547#5 -36907547#4 -36907547#3 -36907547#2 -38541581 -36907545#1 -36907545#0 -36897656#14 -36897656#12 -36897656#11 -36897656#9 -36897656#8 -36897656#7 -36897656#6 36907513 36907510#0"/>
    </vehicle>
    <vehicle id="16" depart="16.00">
        <route edges="1452617368 498553874#0 498553874#1 375964868#1 375964868#2 375964868#3 375964868#4 375964868#6 375964868#7 375964868#8 224618934#0 224618934#1 224618934#2 224618934#3 224618934#5 224618934#7 224618934#8 224618934#9 224618934#10 1311251824#0 1311251823#0 1311251823#1 148016866#0 148016866#1 36897704#0 36897704#1 36897704#2 36897704#3 638928393#0 638928393#1 638928393#3 36897679#1 688824223#0 688824223#1 688824223#2 688824223#3 688824223#4 688824223#5"/>
    </vehicle>
    <vehicle id="17" depart="17.00">
        <route edges="-38762860#3 -38762860#2 38762860#2 38762860#3 -1379232589#2 -1379232589#1 -1379232589#0 36965407#1 36965407#2 36965407#3 36965407#4 36965407#5 1109915137#0 1109915137#1 498553874#0 498553874#1 375964868#1 375964868#2 375964868#3 375964868#4 375964868#6 375964868#7 133467629 1308725870#4 36852351#1 36852351#4 36852351#5 36852351#6 -112657835#11 -112657835#9 -112657835#8 -112657835#7 -112657835#6 -112657835#5 -112657835#4 -112657835#3 -173470557#1 173470557#1"/>
    </vehicle>
    <vehicle id="18" depart="18.00">
        <route edges="38757895#7 -38757895#7 -251492658#8 -251492658#7 -251492658#6 -251492658#4 -251492658#3 -251492658#2 -251492658#1 -251492658#0 38757909#0 38757909#1 38757909#2 224618934#7 224618934#8 224618934#9 224618934#10 1311251824#0 1311251823#0 1311251823#1 148016866#0 148016866#1 36897704#0 36897704#1 36897704#2 36897704#3 638928393#0 638928393#1 638928393#3 36897679#1 688824223#0 688824223#1 688824223#2 -1094460062#3 -1094460062#2 -1094460062#0 23081595#5"/>
    </vehicle>
    <vehicle id="19" depart="19.00">
        <route edges="38757908#3 38757908#4 1314840982 251492658#0 251492658#1 251492658#2 251492658#3 251492658#4 251492658#6 251492658#7 251492658#8 251492658#9 251492658#10 251492658#11 251492658#12 251492658#13 251492658#14 251492658#15 251492658#16 251492658#17 251492658#18 251492658#19 251492658#21 251492658#22 251492658#23 328836685#8 328836685#10 328836685#11 328836685#12 1154162811#0 132191814#0 132191814#1 132191814#2 175392021#0 175392021#1 175392021#2 175392021#3 175392021#4"/>
    </vehicle>
    <vehicle id="20" depart="20.00">
        <route edges="36897672#0 -23515292#3 -23515292#1 -23515292#0 1347949977 111867007#0 111867007#1 111867007#3 111867007#5 111867007#6 52244624#0 1469037766 36897705#1 36897705#2 36897705#3 764329021#0 764329022#1 764329022#2 764329022#3 764329022#4 1347255640#0 1347255640#1 328836685#1 328836685#2 328836685#3 328836685#4 328836685#5 328836685#6 -251492658#23 -251492658#22 -251492658#21 -251492658#19 -251492658#18 -251492658#17 -251492658#16 -251492658#15 -251492658#14 -251492658#13 -251492658#12 -251492658#11 -251492658#10 -251492658#9 -251492658#8 -251492658#7 -251492658#6 -251492658#4 -251492658#3 -251492658#2 -251492658#1 -112028499#0"/>
    </vehicle>
    <vehicle id="21" depart="21.00">
        <route edges="-36907521#1 36907521#1 36907521#2 -36897656#22 -36897656#21 -36897656#19 -36897656#17 -36897656#16 -36897656#14 -36897656#12 -36897656#11 -36897656#9 -36897656#8 -36897656#7 -36897656#6 -36897656#5 -36897656#4 -36897656#2 461556532 148016888#0 22893740#1 22893740#2 154340361#0 52033011#0 52033011#8 52033011#9 52033011#10 52033011#11 52033011#12 52033011#13 52033011#14 52033011#15 52033011#16 52033011#17 52033011#18 52033011#19 52033011#20 52033011#21 52033011#22 1347255640#0 1347255640#1 328836685#1 328836685#2 328836685#3 328836685#4 328836685#5 328836685#6 -251492658#23 -251492658#22 38757898#0 38757898#1 38757898#2 38757898#3 38757898#4 38757898#5 -38757898#5"/>
    </vehicle>
    <vehicle id="22" depart="22.00">
        <route edges="-1190067592 1190067592 -1094460043#0 36897683#3 1094460045#0 1094460045#1 36907508#0 36907508#1 36907508#2 763175324#1 763175324#2 763175324#3 763175324#4 143368260#0 143368260#2 688824223#0 161984942 23076921#0 23076921#1 1347949977 -36907545#11 -36907545#10 -36907545#9 -36907545#7 -36907545#6"/>
    </vehicle>
    <vehicle id="23" depart="23.00">
        <route edges="-1379232589#10 -1379232589#9 -1379232589#8 -1379232589#6 -1379232589#5 -1379232589#3 -1379232589#2 -1379232589#1 -1379232589#0 736430942#0 132191814#0 132191814#1 132191814#2 132191814#4 132191814#5 132191814#6 132191814#7 132191814#8 132191814#9 1347255637 763175325#0 763175325#1 763175325#2 763175325#3 763175325#4 763175325#6 182196323#0 182196323#1 182196323#2 182196323#3 182196323#4 182196323#5 182196323#6 182196323#7 182196323#9 182196323#10 182196323#11 763175324#1 763175324#2 763175324#3 763175324#4 143368260#0 143368260#2 688824223#0 161984942 23076921#0 23076921#1 1347949977 36897655#0 36897655#1 36897655#2 36897655#3 36897655#5 36897655#6 36897655#7 36897655#9 36897655#10 36907529#14 -38541587"/>
    </vehicle>
    <vehicle id="24" depart="24.00">
        <route edges="251492658#16 251492658#17 251492658#18 251492658#19 251492658#21 251492658#22 251492658#23 328836685#8 328836685#10 328836685#11 328836685#12 1154162811#0 763282652#1 1379232589#0 1379232589#1 1379232589#2 1379232589#3 1379232589#5 1379232589#6 1379232589#8 1379232589#9 1379232589#10 48842836#0 48842836#1 -38766666#2 -38766666#1 -38766666#0 -38762870#1"/>
    </vehicle>
    <vehicle id="25" depart="25.00">
        <route edges="-38757939#1 38757920#1 38757904#1 38757904#2 38757904#3 38757904#4 38757904#5 38757904#6 38757904#7 -38757907#4 -38757907#3 38757911#0 38757911#1 224618934#9 224618934#10 1311251824#0 1311251823#0 1311251823#1 148016866#0 148016866#1 36897704#0 36897704#1 36897704#2 36897704#3 638928393#0 638928393#1 638928393#3 36897679#1 688824223#0 161984942 23076921#0 23076921#1 1347949977 36897655#0 36897655#1 36897655#2 36897655#3 36897655#5 36897655#6 36897655#7 36897655#9 36897655#10 -36907529#13"/>
    </vehicle>
    <vehicle id="26" depart="26.00">
        <route edges="-38541553 36897653#0 36897653#1 36897653#2 36897653#3 36897653#4 36897653#5 36897653#6 36897653#7 36897653#9 36907545#2 36907545#4 36907545#5 36907545#6 36907545#7 36907545#9 36907545#10 36907545#11 111867007#0 111867007#1 111867007#3 421102468#1"/>
    </vehicle>
    <vehicle id="27" depart="27.00">
        <route edges="298037893#0 -38757902#2 -38757902#1 -38757902#0 -251492658#9 -251492658#8 -251492658#7 -251492658#6 -251492658#4 -251492658#3 -251492658#2 -251492658#1 -251492658#0 38757909#0 38757909#1 38757909#2 224618934#7 224618934#8 224618934#9 224618934#10 1311251824#0 1311251823#0 1311251823#1 148016866#0 148016866#1 148016873#0 461556532 148016888#0 22893740#1 22893740#2 154340361#0 154340361#1 1315881698#0 1315881698#1 23076955#1 23076955#2"/>
    </vehicle>
    <vehicle id="28" depart="28.00">
        <route edges="-251492658#23 -251492658#22 251492658#22 251492658#23 328836685#8 328836685#10 328836685#11 328836685#12 1154162811#0 132191814#0 132191814#1 132191814#2 132191814#4 132191814#5 132191814#6 132191814#7 132191814#8 132191814#9 1347255637 763175325#0 763175325#1 763175325#2 763175325#3 763175325#4 763175325#6 182196323#0 182196323#1 182196323#2 182196323#3 182196323#4 182196323#5 182196323#6 182196323#7 182196323#9 182196323#10 182196323#11 -36907508#2 36907508#2"/>
    </vehicle>
    <vehicle id="29" depart="29.00">
        <route edges="-251492658#10 -251492658#9 -251492658#8 -251492658#7 -251492658#6 -251492658#4 -251492658#3 -251492658#2 -251492658#1 -251492658#0 38757909#0 38757909#1 38757909#2 224618934#7 224618934#8 224618934#9 224618934#10 1311251824#0 1311251823#0 1311251823#1 148016866#0 148016866#1 148016873#0 461556532 23076927#0 23076927#3 23076927#5 23076927#6 36907521#1 36907521#2 -36897656#22 36907546#0 36907546#1 36907546#2 36907546#3 -1094732593#2 -1094732593#1 -1094732593#0 405141229#0 405141229#1 405141229#2 405141229#3 405141229#4 405141229#5 -405141229#5"/>
    </vehicle>
    <vehicle id="30" depart="30.00">
        <route edges="764329022#4 1347255640#0 1347255640#1 328836685#1 328836685#2 328836685#3 328836685#4 328836685#5 328836685#6 -251492658#23 -251492658#22 251492658#22 251492658#23"/>
    </vehicle>
    <vehicle id="31" depart="31.00">
        <route edges="175391972#3 175391972#4 175391972#5 175391972#6 175391972#7 175391972#8 132191814#5 132191814#6 132191814#7 132191814#8 132191814#9 1347255637 763175325#0 763175325#1 763175325#2 763175325#3 763175325#4 763175325#6 182196323#0 182196323#1 182196323#2 182196323#3 182196323#4 182196323#5 182196323#6 182196323#7 182196323#9 182196323#10 182196323#11 763175324#1 763175324#2 763175324#3 763175324#4 688824222#0 763284659#0 763284659#2 763284659#3 763284659#4 1214076611 37898955#0 36897656#2 36897656#4 36897656#5 36897656#6 36897656#7 36897656#8 36897656#9 36897656#11"/>
    </vehicle>
    <vehicle id="32" depart="32.00">
        <route edges="38757902#1 -38757902#1 -38757902#0 -251492658#9 -251492658#8 -251492658#7 -251492658#6 -251492658#4 -251492658#3 -251492658#2 -251492658#1 -251492658#0 38757909#0 38757909#1 38757909#2 224618934#7 224618934#8 224618934#9 224618934#10 1311251824#0 1311251823#0 1311251823#1 148016866#0 148016866#1 36897704#0 36897704#1 36897704#2 36897704#3 638928393#0 638928393#1 638928393#3 36897679#1 688824223#0 161984942 23076921#0 23076921#1 1347949977 -36907545#11 -36907545#10 -36907545#9 -36907545#7 36907574#0"/>
    </vehicle>
    <vehicle id="33" depart="33.00">
        <route edges="-36907529#0 -36897656#24 -36897656#23 -36897656#22 -36897656#21 -36897656#19 -36897656#17 -36897656#16 -36897656#14 -36897656#12 -36897656#11 -36897656#9 -36897656#8 -36897656#7 -36897656#6 -36897656#5 -36897656#4 -36897656#2 461556532 148016888#0 22893740#1 22893740#2 154340361#0 52033011#0 52033011#8 52033011#9 52033011#10 52033011#11 1098776742 -1098776742"/>
    </vehicle>
    <vehicle id="34" depart="34.00">
        <route edges="-38757900#2 -38757900#1 -38757900#0 -1249874881 -251492658#14 -251492658#13 -251492658#12 -251492658#11 -251492658#10 -251492658#9 -251492658#8 -251492658#7 -251492658#6 -251492658#4 -251492658#3 -251492658#2 -251492658#1 -251492658#0 38757909#0 38757909#1 38757909#2 224618934#7 224618934#8 224618934#9 224618934#10 1311251824#0 1311251823#0 1311251823#1 148016866#0 148016866#1 36897704#0 36897704#1 36897704#2 36897704#3 638928393#0 638928393#1 638928393#3 36897679#1 688824223#0 161984942 23076921#0 23076921#1 1347949977 -36907545#11 -36907545#10 -36907545#9 38541573#0 38541573#1 -38541573#1"/>
    </vehicle>
    <vehicle id="36" depart="36.00">
        <route edges="38757920#1 38757904#1 38757904#2 38757904#3 38757904#4 38757904#5 38757904#6 38757904#7 -38757907#4 -38757907#3 38757911#0 -38757912"/>
    </vehicle>
    <vehicle id="37" depart="37.00">
        <route edges="310910082#1 310910082#4 763284659#0 763284659#2 763284659#3 763284659#4 638928393#0 638928393#1 638928393#3 36897679#1 688824223#0 688824223#1 23081473#0 23081473#1 23081473#2 23081473#3 23081473#4 23081473#5 -36907508#1 -36907508#0 -1094460045#1 1094460046"/>
    </vehicle>
    <vehicle id="38" depart="38.00">
        <route edges="38762869#0 38762869#1 -38762869#1 -38762869#0 -1379232589#8 -1379232589#6 -1379232589#5 -1379232589#3 -1379232589#2 -1379232589#1 -1379232589#0 736430942#0 132191814#0 132191814#1 132191814#2 132191814#4 132191814#5 132191814#6 132191814#7 132191814#8 132191814#9 1347255637 763175325#0 763175325#1 763175325#2 763175325#3 763175325#4 763175325#6 182196323#0 182196323#1 182196323#2 182196323#3 182196323#4 182196323#5 182196323#6 182196323#7 182196323#9 182196323#10 182196323#11 763175324#1 763175324#2 763175324#3 763175324#4 143368260#0 143368260#2 688824223#0 161984942 23076921#0 23076921#1 1347949977 36897655#0 36897655#1 36897655#2 36897655#3 36897655#5 36897655#6 36897655#7 36897655#9 36897655#10 -36907529#13 -36907529#12 -36907529#11 111867015"/>
    </vehicle>
    <vehicle id="39" depart="39.00">
        <route edges="-36907574#3 -36907574#2 38541574#0 38541576#0 38541576#1 -38541557#0"/>
    </vehicle>
    <vehicle id="40" depart="40.00">
        <route edges="175391987 -175392024#2 175392010#2 175392014#4 763175325#6 182196323#0 182196323#1 182196323#2 182196323#3 182196323#4 182196323#5 182196323#6 182196323#7 182196323#9 182196323#10 182196323#11 763175324#1 763175324#2 763175324#3 763175324#4 143368260#0 143368260#2 688824223#0 161984942 23076921#0 23076921#1 1347949977 36897655#0 36897655#1 36897655#2 36897655#3 36897655#5 36897655#6 36897655#7 38541555#0 38541555#2 38541555#3 -38541568#2"/>
    </vehicle>
    <vehicle id="41" depart="41.00">
        <route edges="182196323#10 182196323#11 763175324#1 763175324#2 763175324#3 763175324#4 688824222#0 763284659#0 763284659#2 763284659#3 763284659#4 1214076611 37898955#0 461556532 148016888#0 22893740#1 22893740#2 154340361#0 52033011#0 52033011#8 52033011#9 52033011#10 52033011#11 52033011#12 52033011#13 52033011#14 52033011#15 52033011#16 52033011#17 1249875207 -38757938#1 38757938#1"/>
    </vehicle>
    <vehicle id="43" depart="43.00">
        <route edges="91894181#2 1452617366 1452617367 1352261231 627144178#0 627144178#1 627144178#2 736430942#0 132191814#0 132191814#1 132191814#2"/>
    </vehicle>
    <vehicle id="44" depart="44.00">
        <route edges="-1249876030#4 1249876030#4 38757904#5 38757904#6 38757895#3 38757905#1 38757905#2 38757905#3 208745497#0 -112028499#2"/>
    </vehicle>
    <vehicle id="45" depart="45.00">
        <route edges="-172851206#1 -172851206#0 688824223#6 244304927"/>
    </vehicle>
    <vehicle id="46" depart="46.00">
        <route edges="38541555#3 -38541554 -36907529#8 -36907529#7 -36897662#4 -36897662#2 1094745005#0"/>
    </vehicle>
    <vehicle id="48" depart="48.00">
        <route edges="91892803#4 28451729 1352261231 627144178#0 91892795#1 91892795#3 666345761 50128404#0 50128404#1 23030050#0 23030050#1 23030050#2 -1379232589#11 -1379232589#10 -1379232589#9 1379232589#9"/>
    </vehicle>
    <vehicle id="49" depart="49.00">
        <route edges="688824223#3 688824223#4 -1094460065#2 -1094460065#1 -1094460065#0 23081595#3 23081595#4 23081595#5 23081595#6 23081595#7 23081595#8 23081595#10 763175324#4 688824222#0 763284659#0 763284659#2 763284659#3 763284659#4 1469037766 36897705#1 36897705#2 36897705#3 764329021#0 764329022#1 764329022#2 764329022#3 764329022#4 1347255640#0 1347255640#1 328836685#1 328836685#2 328836685#3 328836685#4 328836685#5 328836685#6 -251492658#23 -251492658#22 -251492658#21 -251492658#19 -251492658#18 -251492658#17 -251492658#16 -251492658#15 -251492658#14 -251492658#13 -251492658#12 -251492658#11 -251492658#10 -251492658#9 -251492658#8 -251492658#7 38757907#8 38757907#9"/>
    </vehicle>
    <vehicle id="50" depart="50.00">
        <route edges="-1094460066 -1094460065#0 36897683#0 36897683#1 36897683#2 36897683#3 36897683#4"/>
    </vehicle>
    <vehicle id="51" depart="51.00">
        <route edges="36897655#2 -38541560#2 -38541560#0 38541558#8 38541558#10 36907545#11 111867007#0 111867007#1 111867007#3 111867007#5 111867007#6 52244624#0 1469037766 36897705#1 36897705#2 36897705#3 764329021#0 764329022#1 764329022#2 764329022#3 764329022#4 1347255640#0 1347255640#1 328836685#1 328836685#2 328836685#3 328836685#4 328836685#5 328836685#6 328836685#8 328836685#10 328836685#11 328836685#12 1154162811#0 763282652#1 36965407#1 36965407#2 36965407#3 36965407#4 36965407#5 1109915137#0 1109915137#1 1308734871 1452617366 1452617365#0 1452617365#1 1474402823#0 1474402823#1 1474402823#2"/>
    </vehicle>
    <vehicle id="52" depart="52.00">
        <route edges="-38541553 36897653#0 36897653#1 36897653#2 -36907529#2 -36907529#0 -36897656#24 -36897656#23 -36897656#22 -36897656#21 -36897656#19 -36897656#17 -36897656#16 -36897656#14 -36897656#12 -36897656#11 -36897656#9 -36897656#8 -36897656#7 -36897656#6 -36897656#5 -36897656#4 -36897656#2 461556532 148016888#0 22893740#1 22893740#2 154340361#0 52033011#0 52033011#8 52033011#9 38757907#0 38757907#1 38757907#3 38757907#4 38757907#5 38757907#6 38757907#7 -251492658#6 -251492658#4 251492658#4"/>
    </vehicle>
    <vehicle id="53" depart="53.00">
        <route edges="-172891315 462585104#0 462585104#2 1190067592 -1094460043#0 36897683#3 1094460045#0 1094460045#1 36907508#0 36907508#1 36907508#2 763175324#1 763175324#2 763175324#3 763175324#4 143368260#0 143368260#2 688824223#0 161984942 23076921#0 23076921#1 1347949977 111867007#0 111867007#1 111867007#3 111867007#5 1098770425#1"/>
    </vehicle>
    <vehicle id="54" depart="54.00">
        <route edges="1098776763 213042770#1 -251492658#17 -251492658#16 -251492658#15 -251492658#14 -251492658#13 -251492658#12 -251492658#11 -251492658#10 -251492658#9 -38757895#6 -38757895#5 -38757895#4 -38757895#3 -38757895#2 -38757895#1 -38757895#0 52033011#11 52033011#12 52033011#13 52033011#14 52033011#15 52033011#16 52033011#17 52033011#18 52033011#19"/>
    </vehicle>
    <vehicle id="55" depart="55.00">
        <route edges="38757920#0 38757920#1 38757904#1 38757904#2 38757904#3 38757904#4 38757904#5 38757904#6 38757904#7 -38757907#4 -38757907#3 38757911#0 38757911#1 224618934#9 224618934#10 1311251824#0 1311251823#0 1311251823#1 148016866#0 148016866#1 148016873#0 461556532 23076927#0 23076927#3 23076927#5 -1065391880#0 -36907517 38541570#0 -1095075528 36907545#4 -38541569#1 -38541569#0"/>
    </vehicle>
    <vehicle id="56" depart="56.00">
        <route edges="1259465066 37898955#0 461556532 148016888#0 22893740#1 22893740#2 26179365#0 148016866#0 148016866#1 36897704#0 36897704#1 36897704#2 36897704#3 638928393#0 638928393#1 638928393#3 36897679#1 688824223#0 161984942 23076921#0 23076921#1 23515292#0 23515292#1 23515292#3 36897672#1 -36897672#1"/>
    </vehicle>
    <vehicle id="57" depart="57.00">
        <route edges="38762868#0 -38762870#2 -38762870#1 -38762870#0 -38762869#8 -38762869#7 -38762869#6 -38762869#5 -38762869#4 -38762869#3 -38762869#2 -38762869#1 -38762869#0 -1379232589#8 -1379232589#6 -1379232589#5 -1379232589#3 -1379232589#2 -1379232589#1 -1379232589#0 736430942#0 132191814#0 132191814#1 132191814#2 132191814#4 132191814#5 132191814#6 132191814#7 132191814#8 132191814#9 152193867 328836685#2 328836685#3 38757904#0 38757904#1 38757904#2 38757904#3 -38757917#6 -38757917#5 -38757917#4 -38757917#3 -38757917#2 -38757917#1 -38757917#0 38757917#0"/>
    </vehicle>
    <vehicle id="58" depart="58.00">
        <route edges="-38541582#0 -36907545#0 -36897656#14 -36897656#12 -36897656#11 -36897656#9 -36897656#8 -36897656#7 -36897656#6 -36897656#5 -36897656#4 -36897656#2 461556532 148016888#0 22893740#1 22893740#2 154340361#0 52033011#0 52033011#8 52033011#9 52033011#10 52033011#11 52033011#12 52033011#13 52033011#14 52033011#15 52033011#16 52033011#17 52033011#18 52033011#19 52033011#20 52033011#21 52033011#22 1347255640#0 1347255640#1 328836685#1 328836685#2 328836685#3 328836685#4 328836685#5 328836685#6 -251492658#23 -251492658#22 -251492658#21 251492658#21"/>
    </vehicle>
    <vehicle id="59" depart="59.00">
        <route edges="23076927#6 36907521#1 36907521#2 -36897656#22 -36897656#21 -36897656#19 -36897656#17 -36897656#16 -36897656#14 -36897656#12 -36897656#11 -36897656#9 -36897656#8 -36897656#7 -36897656#6 -36897656#5 -36897656#4 -36897656#2 461556532 148016888#0 22893740#1 22893740#2 154340361#0 52033011#0 52033011#8 52033011#9 52033011#10 38757895#0 38757895#1 38757895#2 38757895#3 38757895#4 38757895#5 38757895#6 -251492658#8"/>
    </vehicle>
    <vehicle id="60" depart="60.00">
        <route edges="36907542#2 36897662#4 -36907529#6 -36907529#4 -36907529#3 -36907529#2 -36907529#0 -36897656#24 -36897656#23 -36897656#22 -36897656#21 -36897656#19 -36897656#17 -36897656#16 -36897656#14 -36897656#12 -36897656#11 -36897656#9 -36897656#8 -36897656#7 -36897656#6 -36897656#5 -36897656#4 -36897656#2 461556532 148016888#0 22893740#1 22893740#2 26179365#0 148016866#0 148016866#1"/>
    </vehicle>
    <vehicle id="61" depart="61.00">
        <route edges="36907575#0 -36907575#0 -36907531#0 -410858824#1 -410858824#0 -23515292#1 -23515292#0 1347949977 111867007#0 111867007#1 111867007#3 111867007#5 111867007#6 52244624#0 638928393#0 638928393#1 638928393#3 36897679#1 688824223#0 688824223#1 23081473#0 23081473#1 23081473#2 23081595#7 23081595#8 23081595#10 763175324#4 143368260#0"/>
    </vehicle>
    <vehicle id="62" depart="62.00">
        <route edges="-1065391880#0 -36907517 -36897656#12 -36897656#11 -36897656#9 -36897656#8 -36897656#7 -36897656#6 -36897656#5 -36897656#4 -36897656#2 461556532 148016888#0 22893740#1 22893740#2 154340361#0 52033011#0 52033011#8 52033011#9 52033011#10 52033011#11 52033011#12 52033011#13 52033011#14 52033011#15 52033011#16 52033011#17 52033011#18 52033011#19 52033011#20 52033011#21 52033011#22 1347255640#0 1347255640#1 38757919#0 38757919#1 38757919#2 -38757919#2"/>
    </vehicle>
    <vehicle id="63" depart="63.00">
        <route edges="-1094730017 38541558#2 38541558#4 38541558#5 38541558#6 38541558#8 38541558#10 36907545#11 111867007#0 111867007#1 111867007#3 111867007#5 111867007#6 52244624#0 1469037766 36897705#1 36897705#2 36897705#3 764329021#0 764329022#1 764329022#2 764329022#3 764329022#4 1347255640#0 1347255640#1 328836685#1 328836685#2 328836685#3 328836685#4 328836685#5 328836685#6 328836685#8 328836685#10 328836685#11 328836685#12 1154162811#0 763282652#1 1379232589#0 1379232589#1 1379232589#2 1379232589#3 1379232589#5 1379232589#6 1379232589#8 1379232589#9 -1182190937#1 -1182190937#0 38766667"/>
    </vehicle>
    <vehicle id="64" depart="64.00">
        <route edges="38757923#2 38757923#3 38757923#4 38757923#5 38757923#6 38757895#8 251513712#0 251513712#1 375964868#6 375964868#7 375964868#8 38757896#0"/>
    </vehicle>
    <vehicle id="65" depart="65.00">
        <route edges="-38757895#7 -251492658#8 -251492658#7 -251492658#6 -251492658#4 -251492658#3 -251492658#2 -251492658#1 -251492658#0 38757909#0 38757909#1 38757909#2 224618934#7 224618934#8 224618934#9 224618934#10 1311251824#0 1311251823#0 1311251823#1 148016866#0 148016866#1 36897704#0 36897704#1 36897704#2 36897704#3 638928393#0 638928393#1 638928393#3 36897679#1 688824223#0 688824223#1 688824223#2 688824223#3 688824223#4 688824223#5 172851206#0 172851206#1 172851206#2 172851206#3 -1158083354#1 -1158083354#0"/>
    </vehicle>
    <vehicle id="66" depart="66.00">
        <route edges="38757923#1 38757923#2 38757923#3 38757923#4 38757923#5 38757923#6 38757895#8 251513712#0 251513712#1 375964868#6 375964868#7 133467629 1308725870#4 36852351#1 36852351#4 36852351#5 36852351#6 91894181#1 91894181#2 1452617366 1452617367 1352261231 627144178#0 91892795#1 91892795#3 666345761 50128404#0 50128404#1"/>
    </vehicle>
    <vehicle id="67" depart="67.00">
        <route edges="-1227750788#0 23081595#6 23081595#7 23081595#8 23081595#10 763175324#4 688824222#0 763284659#0 763284659#2 763284659#3 763284659#4 1469037766 36897705#1 36897705#2 36897705#3 764329021#0 764329022#1 764329022#2 764329022#3 764329022#4 1347255640#0 1347255640#1 328836685#1 328836685#2 328836685#3 328836685#4 328836685#5 328836685#6 328836685#8 328836685#10 328836685#11 328836685#12 1154162811#0 763282652#1 1379232589#0 1227730738#0"/>
    </vehicle>
    <vehicle id="68" depart="68.00">
        <route edges="-113287091#0 -38758708#2 38758708#2 113287091#0 113287091#1 113287091#2 113287091#3 182196323#2 182196323#3 182196323#4 182196323#5 182196323#6 182196323#7 182196323#9 182196323#10 182196323#11 763175324#1 763175324#2 763175324#3 763175324#4 688824222#0 763284659#0 763284659#2 763284659#3 763284659#4 1214076611 37898955#0 36897656#2 36897656#4 36897656#5 36897656#6 36897656#7 36897656#8 36897656#9 36897656#11 36897656#12 36897656#14 36897656#16 36897656#17 36897656#19 36897656#21 36897656#22 36897656#23 36897656#24 36907529#0 111867014#0 36907542#0"/>
    </vehicle>
    <vehicle id="69" depart="69.00">