<?xml version="1.0" encoding="UTF-8"?>
<!-- generated on 2026-03-20 12:36:46.932575 by randomTrips.py UNKNOWN
  options: -n map.net.xml -o map.trips.xml -r map.rou.xml -e 1000
-->
<routes xmlns:xsi="http://www.w3.org/2001/XMLSchema-instance" xsi:noNamespaceSchemaLocation="http://sumo.dlr.de/xsd/routes_file.xsd">
    <trip id="0" depart="0.00" from="251492658#22" to="-1094745007#1"/>
    <trip id="1" depart="1.00" from="-38541558#6" to="-36907536#7"/>
    <trip id="2" depart="2.00" from="36907513" to="36897653#7"/>
    <trip id="3" depart="3.00" from="38757929#7" to="-172851206#0"/>
    <trip id="4" depart="4.00" from="1094460062#0" to="-1095075529"/>
    <trip id="5" depart="5.00" from="-36907510#2" to="1315881698#0"/>
    <trip id="6" depart="6.00" from="-1094732597" to="-36907510#5"/>
    <trip id="7" depart="7.00" from="298037893#3" to="154340361#2"/>
    <trip id="8" depart="8.00" from="-36907510#5" to="208745497#1"/>
    <trip id="9" depart="9.00" from="38541569#0" to="-1094460062#3"/>
    <trip id="10" depart="10.00" from="38541565#2" to="36897668#1"/>
    <trip id="11" depart="11.00" from="-38757914" to="-36897653#2"/>
    <trip id="12" depart="12.00" from="52244624#0" to="-38757929#2"/>
    <trip id="13" depart="13.00" from="-1308629012" to="-175391972#8"/>
    <trip id="14" depart="14.00" from="38757904#2" to="23076921#0"/>
    <trip id="15" depart="15.00" from="38541568#0" to="36907510#0"/>
    <trip id="16" depart="16.00" from="1452617368" to="688824223#5"/>
    <trip id="17" depart="17.00" from="-38762860#3" to="173470557#1"/>
    <trip id="18" depart="18.00" from="38757895#7" to="23081595#5"/>
    <trip id="19" depart="19.00" from="38757908#3" to="175392021#4"/>
    <trip id="20" depart="20.00" from="36897672#0" to="-112028499#0"/>
    <trip id="21" depart="21.00" from="-36907521#1" to="-38757898#5"/>
    <trip id="22" depart="22.00" from="-1190067592" to="-36907545#6"/>
    <trip id="23" depart="23.00" from="-1379232589#10" to="-38541587"/>
    <trip id="24" depart="24.00" from="251492658#16" to="-38762870#1"/>
    <trip id="25" depart="25.00" from="-38757939#1" to="-36907529#13"/>
    <trip id="26" depart="26.00" from="-38541553" to="421102468#1"/>
    <trip id="27" depart="27.00" from="298037893#0" to="23076955#2"/>
    <trip id="28" depart="28.00" from="-251492658#23" to="36907508#2"/>
    <trip id="29" depart="29.00" from="-251492658#10" to="-405141229#5"/>
    <trip id="30" depart="30.00" from="764329022#4" to="251492658#23"/>
    <trip id="31" depart="31.00" from="175391972#3" to="36897656#11"/>
    <trip id="32" depart="32.00" from="38757902#1" to="36907574#0"/>
    <trip id="33" depart="33.00" from="-36907529#0" to="-1098776742"/>
    <trip id="34" depart="34.00" from="-38757900#2" to="-38541573#1"/>
    <trip id="35" depart="35.00" from="-36897677#6" to="462585115#1"/>
    <trip id="36" depart="36.00" from="38757920#1" to="-38757912"/>
    <trip id="37" depart="37.00" from="310910082#1" to="1094460046"/>
    <trip id="38" depart="38.00" from="38762869#0" to="111867015"/>
    <trip id="39" depart="39.00" from="-36907574#3" to="-38541557#0"/>
    <trip id="40" depart="40.00" from="175391987" to="-38541568#2"/>
    <trip id="41" depart="41.00" from="182196323#10" to="38757938#1"/>
    <trip id="42" depart="42.00" from="-38773285#2" to="-36907535#3"/>
    <trip id="43" depart="43.00" from="91894181#2" to="132191814#2"/>
    <trip id="44" depart="44.00" from="-1249876030#4" to="-112028499#2"/>
    <trip id="45" depart="45.00" from="-172851206#1" to="244304927"/>
    <trip id="46" depart="46.00" from="38541555#3" to="1094745005#0"/>
    <trip id="47" depart="47.00" from="-112657835#11" to="-411092288"/>
    <trip id="48" depart="48.00" from="91892803#4" to="1379232589#9"/>
    <trip id="49" depart="49.00" from="688824223#3" to="38757907#9"/>
    <trip id="50" depart="50.00" from="-1094460066" to="36897683#4"/>
    <trip id="51" depart="51.00" from="36897655#2" to="1474402823#2"/>
    <trip id="52" depart="52.00" from="-38541553" to="251492658#4"/>
    <trip id="53" depart="53.00" from="-172891315" to="1098770425#1"/>
    <trip id="54" depart="54.00" from="1098776763" to="52033011#19"/>
    <trip id="55" depart="55.00" from="38757920#0" to="-38541569#0"/>
    <trip id="56" depart="56.00" from="1259465066" to="-36897672#1"/>
    <trip id="57" depart="57.00" from="38762868#0" to="38757917#0"/>
    <trip id="58" depart="58.00" from="-38541582#0" to="251492658#21"/>
    <trip id="59" depart="59.00" from="23076927#6" to="-251492658#8"/>
    <trip id="60" depart="60.00" from="36907542#2" to="148016866#1"/>
    <trip id="61" depart="61.00" from="36907575#0" to="143368260#0"/>
    <trip id="62" depart="62.00" from="-1065391880#0" to="-38757919#2"/>
    <trip id="63" depart="63.00" from="-1094730017" to="38766667"/>
    <trip id="64" depart="64.00" from="38757923#2" to="38757896#0"/>
    <trip id="65" depart="65.00" from="-38757895#7" to="-1158083354#0"/>
    <trip id="66" depart="66.00" from="38757923#1" to="50128404#1"/>
    <trip id="67" depart="67.00" from="-1227750788#0" to="1227730738#0"/>
    <trip id="68" depart="68.00" from="-113287091#0" to="36907542#0"/>
    <trip id="69" depart="69.00" from="36907545#2" to="-23081479#2"/>
    <trip id="70" depart="70.00" from="112657835#3" to="172851206#1"/>
    <trip id="71" depart="71.00" from="-36907574#5" to="38757917#3"/>
    <trip id="72" depart="72.00" from="1094460062#3" to="-36907529#2"/>
    <trip id="73" depart="73.00" from="1474402823#3" to="36907510#1"/>
    <trip id="74" depart="74.00" from="-36897673#1" to="-38757908#2"/>
    <trip id="75" depart="75.00" from="91892803#2" to="298037893#3"/>
    <trip id="76" depart="76.00" from="1094732599" to="1347949977"/>
    <trip id="77" depart="77.00" from="-175392001#1" to="-36907540#1"/>
    <trip id="78" depart="78.00" from="-38757911#0" to="182196323#9"/>
    <trip id="79" depart="79.00" from="-36907529#11" to="-36907536#2"/>
    <trip id="80" depart="80.00" from="-113287091#3" to="251492658#1"/>
    <trip id="81" depart="81.00" from="-36907529#0" to="38758712"/>
    <trip id="82" depart="82.00" from="38757907#9" to="-1249876030#3"/>
    <trip id="83" depart="83.00" from="-36907531#0" to="36852351#4"/>
    <trip id="84" depart="84.00" from="-36897683#3" to="-23081595#4"/>
    <trip id="85" depart="85.00" from="410858824#1" to="175392018#2"/>
    <trip id="86" depart="86.00" from="1125385914" to="36971492#1"/>
    <trip id="87" depart="87.00" from="38541568#0" to="-36897683#0"/>
    <trip id="88" depart="88.00" from="-1361746442" to="1098770383#1"/>
    <trip id="89" depart="89.00" from="1094460062#3" to="112657835#7"/>
    <trip id="90" depart="90.00" from="36907508#0" to="36897653#2"/>
    <trip id="91" depart="91.00" from="763284659#0" to="-175392001#0"/>
    <trip id="92" depart="92.00" from="-405141229#3" to="-38757929#6"/>
    <trip id="93" depart="93.00" from="38757908#3" to="-38541558#1"/>
    <trip id="94" depart="94.00" from="-36897656#7" to="1098787311#1"/>
    <trip id="95" depart="95.00" from="1094460062#0" to="-38541588"/>
    <trip id="96" depart="96.00" from="-36907542#2" to="38766657#4"/>
    <trip id="97" depart="97.00" from="1095075520#1" to="38757908#0"/>
    <trip id="98" depart="98.00" from="172851206#0" to="-112657835#2"/>
    <trip id="99" depart="99.00" from="995260036" to="38757898#3"/>
    <trip id="100" depart="100.00" from="688824223#0" to="38766665#1"/>
    <trip id="101" depart="101.00" from="38757904#4" to="-36897656#4"/>
    <trip id="102" depart="102.00" from="1158083354#1" to="-36907529#6"/>
    <trip id="103" depart="103.00" from="-405141229#0" to="-1165315511"/>
    <trip id="104" depart="104.00" from="-38762860#3" to="763284659#3"/>
    <trip id="105" depart="105.00" from="-36907574#5" to="36971492#0"/>
    <trip id="106" depart="106.00" from="1098787293#0" to="1094745005#1"/>
    <trip id="107" depart="107.00" from="52244636#0" to="91892803#4"/>
    <trip id="108" depart="108.00" from="175391972#0" to="36897683#1"/>
    <trip id="109" depart="109.00" from="-23081595#7" to="-38757903#2"/>
    <trip id="110" depart="110.00" from="688824222#0" to="175392024#1"/>
    <trip id="111" depart="111.00" from="148016888#0" to="36907529#7"/>
    <trip id="112" depart="112.00" from="-1098787322" to="182196323#2"/>
    <trip id="113" depart="113.00" from="1308725870#0" to="38757905#2"/>
    <trip id="114" depart="114.00" from="-23515292#10" to="627144178#1"/>
    <trip id="115" depart="115.00" from="-1204122765" to="-36897677#0"/>
    <trip id="116" depart="116.00" from="223387678#1" to="36897653#5"/>
    <trip id="117" depart="117.00" from="-36907529#6" to="-208745497#0"/>
    <trip id="118" depart="118.00" from="38757929#4" to="-38541555#3"/>
    <trip id="119" depart="119.00" from="223387678#0" to="23081595#6"/>
    <trip id="120" depart="120.00" from="1094460043#1" to="182196323#11"/>
    <trip id="121" depart="121.00" from="1361746443#2" to="405141229#3"/>
    <trip id="122" depart="122.00" from="-36897675#0" to="36897677#8"/>
    <trip id="123" depart="123.00" from="-36907531#2" to="1094460047"/>
    <trip id="124" depart="124.00" from="36852353" to="-38757904#3"/>
    <trip id="125" depart="125.00" from="-38757901#0" to="36907535#0"/>
    <trip id="126" depart="126.00" from="-1158083354#1" to="111867014#3"/>
    <trip id="127" depart="127.00" from="995213650" to="91894181#1"/>
    <trip id="128" depart="128.00" from="-1165319713" to="-36907529#4"/>
    <trip id="129" depart="129.00" from="-36907574#5" to="405141229#1"/>
    <trip id="130" depart="130.00" from="38757923#5" to="38757923#1"/>
    <trip id="131" depart="131.00" from="-38757939#0" to="-36897653#6"/>
    <trip id="132" depart="132.00" from="38757898#0" to="36897671#3"/>
    <trip id="133" depart="133.00" from="23081473#2" to="764329022#2"/>
    <trip id="134" depart="134.00" from="30332639" to="-1094460065#1"/>
    <trip id="135" depart="135.00" from="38541576#0" to="-38757904#2"/>
    <trip id="136" depart="136.00" from="328836685#8" to="421116826#1"/>
    <trip id="137" depart="137.00" from="-175392019#1" to="-175392021#4"/>
    <trip id="138" depart="138.00" from="-1379232589#9" to="175391972#3"/>
    <trip id="139" depart="139.00" from="-38541558#10" to="23076921#1"/>
    <trip id="140" depart="140.00" from="36897679#1" to="-36907516"/>
    <trip id="141" depart="141.00" from="251492658#13" to="-38541569#1"/>
    <trip id="142" depart="142.00" from="1184587999#0" to="38758712"/>
    <trip id="143" depart="143.00" from="38757903#3" to="-175391972#0"/>
    <trip id="144" depart="144.00" from="1094460062#3" to="-38541582#4"/>
    <trip id="145" depart="145.00" from="-1094460047" to="36907546#3"/>
    <trip id="146" depart="146.00" from="251492658#18" to="-38541568#1"/>
    <trip id="147" depart="147.00" from="36907521#1" to="172891315"/>
    <trip id="148" depart="148.00" from="1094729988#0" to="-1094729985"/>
    <trip id="149" depart="149.00" from="-1165375044" to="38757923#7"/>
    <trip id="150" depart="150.00" from="38758709#0" to="154340361#3"/>
    <trip id="151" depart="151.00" from="38757898#2" to="182196323#1"/>
    <trip id="152" depart="152.00" from="-23030050#1" to="-23081479#1"/>
    <trip id="153" depart="153.00" from="-38757895#8" to="38757939#1"/>
    <trip id="154" depart="154.00" from="38541558#4" to="38757907#9"/>
    <trip id="155" depart="155.00" from="38757938#1" to="-36907529#14"/>
    <trip id="156" depart="156.00" from="-36907542#1" to="-175392014#0"/>
    <trip id="157" depart="157.00" from="36965406#1" to="38757924#0"/>
    <trip id="158" depart="158.00" from="-421116826#0" to="23081595#8"/>
    <trip id="159" depart="159.00" from="-23081595#7" to="38773284#1"/>
    <trip id="160" depart="160.00" from="38757911#0" to="763175324#3"/>
    <trip id="161" depart="161.00" from="38541570#1" to="38757923#4"/>
    <trip id="162" depart="162.00" from="-1094732594" to="36907515"/>
    <trip id="163" depart="163.00" from="-38757907#5" to="38773285#1"/>
    <trip id="164" depart="164.00" from="38541562#0" to="38757909#1"/>
    <trip id="165" depart="165.00" from="38541570#1" to="-38541572#2"/>
    <trip id="166" depart="166.00" from="375964868#4" to="-175392015#5"/>
    <trip id="167" depart="167.00" from="38757917#5" to="38757907#6"/>
    <trip id="168" depart="168.00" from="-36907510#8" to="38541574#3"/>
    <trip id="169" depart="169.00" from="1109914958#0" to="-38757906#1"/>
    <trip id="170" depart="170.00" from="38541558#10" to="-36907544"/>
    <trip id="171" depart="171.00" from="-1094732593#1" to="-36897683#4"/>
    <trip id="172" depart="172.00" from="-38757905#2" to="38757909#1"/>
    <trip id="173" depart="173.00" from="666345761" to="-38757895#0"/>
    <trip id="174" depart="174.00" from="251492658#4" to="1094460062#2"/>
    <trip id="175" depart="175.00" from="763175329#1" to="1474402823#1"/>
    <trip id="176" depart="176.00" from="461556532" to="-175392021#4"/>
    <trip id="177" depart="177.00" from="688824223#2" to="-36897672#1"/>
    <trip id="178" depart="178.00" from="638928392#2" to="-38541572#0"/>
    <trip id="179" depart="179.00" from="-1446452119" to="1098770421"/>
    <trip id="180" depart="180.00" from="36897705#3" to="-38757911#0"/>
    <trip id="181" depart="181.00" from="23076921#0" to="132191814#6"/>
    <trip id="182" depart="182.00" from="-38762869#6" to="175392021#3"/>
    <trip id="183" depart="183.00" from="-36907545#5" to="36897675#0"/>
    <trip id="184" depart="184.00" from="-1094460045#0" to="38766664#1"/>
    <trip id="185" depart="185.00" from="1474402823#1" to="36897683#2"/>
    <trip id="186" depart="186.00" from="36907521#2" to="36852351#6"/>
    <trip id="187" depart="187.00" from="-38757929#6" to="-1249876030#1"/>
    <trip id="188" depart="188.00" from="36851745#0" to="-38757923#7"/>
    <trip id="189" depart="189.00" from="-38757900#0" to="38757904#1"/>
    <trip id="190" depart="190.00" from="36897683#0" to="-38757904#4"/>
    <trip id="191" depart="191.00" from="-38757897#1" to="1094730011"/>
    <trip id="192" depart="192.00" from="-405141229#3" to="-38757903#0"/>
    <trip id="193" depart="193.00" from="-175392015#0" to="1094732599"/>
    <trip id="194" depart="194.00" from="462585104#2" to="36897653#9"/>
    <trip id="195" depart="195.00" from="38758708#1" to="23081479#2"/>
    <trip id="196" depart="196.00" from="-38541582#4" to="154340361#7"/>
    <trip id="197" depart="197.00" from="-1065391880#0" to="-38757898#1"/>
    <trip id="198" depart="198.00" from="1094730012#1" to="175392024#3"/>
    <trip id="199" depart="199.00" from="310910082#0" to="112657835#4"/>
    <trip id="200" depart="200.00" from="1094745007#1" to="-36907529#6"/>
    <trip id="201" depart="201.00" from="112657835#0" to="38758708#0"/>
    <trip id="202" depart="202.00" from="38541558#2" to="-36897662#0"/>
    <trip id="203" depart="203.00" from="-1227730738#0" to="1347255637"/>
    <trip id="204" depart="204.00" from="251492658#11" to="-38757927"/>
    <trip id="205" depart="205.00" from="38541578#0" to="36907531#3"/>
    <trip id="206" depart="206.00" from="36853150-AddedOnRampEdge" to="-36907540#1"/>
    <trip id="207" depart="207.00" from="-36897672#0" to="-1094745007#0"/>
    <trip id="208" depart="208.00" from="-36907536#6" to="1165315511"/>
    <trip id="209" depart="209.00" from="38757904#5" to="-1308629017#1"/>
    <trip id="210" depart="210.00" from="-995260030" to="244304928#2"/>
    <trip id="211" depart="211.00" from="-36897669#0" to="36897662#4"/>
    <trip id="212" depart="212.00" from="1231870395#0" to="-38541554"/>
    <trip id="213" depart="213.00" from="310910082#4" to="-1094460062#2"/>
    <trip id="214" depart="214.00" from="36907531#0" to="36907546#1"/>
    <trip id="215" depart="215.00" from="-1379232589#8" to="1095075517"/>
    <trip id="216" depart="216.00" from="-36897653#1" to="52244636#0"/>
    <trip id="217" depart="217.00" from="133467629" to="-112657835#2"/>
    <trip id="218" depart="218.00" from="-36907542#1" to="38757904#2"/>
    <trip id="219" depart="219.00" from="1098787301#2" to="38541561#0"/>
    <trip id="220" depart="220.00" from="36851759#3" to="764329022#3"/>
    <trip id="221" depart="221.00" from="224618934#0" to="52033011#13"/>
    <trip id="222" depart="222.00" from="38757929#6" to="23081473#5"/>
    <trip id="223" depart="223.00" from="36897683#0" to="1314840982"/>
    <trip id="224" depart="224.00" from="38757896#0" to="154340361#7"/>
    <trip id="225" depart="225.00" from="38757936#0" to="36907529#14"/>
    <trip id="226" depart="226.00" from="112657835#2" to="-38541565#2"/>
    <trip id="227" depart="227.00" from="-36907540#1" to="251492658#19"/>
    <trip id="228" depart="228.00" from="36907545#2" to="1361746443#4"/>
    <trip id="229" depart="229.00" from="23515292#7" to="-38541582#1"/>
    <trip id="230" depart="230.00" from="-1182445044" to="-38757897#3"/>
    <trip id="231" depart="231.00" from="-38541558#1" to="-38757917#3"/>
    <trip id="232" depart="232.00" from="1474402823#4" to="-23515292#6"/>
    <trip id="233" depart="233.00" from="-36907529#13" to="36897656#8"/>
    <trip id="234" depart="234.00" from="36897673#1" to="-1213763939"/>
    <trip id="235" depart="235.00" from="-462585098" to="152582846#1"/>
    <trip id="236" depart="236.00" from="1067081400#0" to="-36907521#2"/>
    <trip id="237" depart="237.00" from="1094460045#1" to="38758710#1"/>
    <trip id="238" depart="238.00" from="182196323#1" to="36897662#1"/>
    <trip id="239" depart="239.00" from="38757907#4" to="36907545#2"/>
    <trip id="240" depart="240.00" from="-38762868#3" to="-1094460062#2"/>
    <trip id="241" depart="241.00" from="-38757923#2" to="36907535#3"/>
    <trip id="242" depart="242.00" from="38757906#0" to="52033011#18"/>
    <trip id="243" depart="243.00" from="1094460043#1" to="36907529#6"/>
    <trip id="244" depart="244.00" from="154340361#2" to="23030052#2"/>
    <trip id="245" depart="245.00" from="-36907510#5" to="-36907535#3"/>
    <trip id="246" depart="246.00" from="1094732593#1" to="-1095075528"/>
    <trip id="247" depart="247.00" from="-38757908#2" to="36897655#10"/>
    <trip id="248" depart="248.00" from="-410858824#0" to="-36897656#23"/>
    <trip id="249" depart="249.00" from="111867014#0" to="-23081479#1"/>
    <trip id="250" depart="250.00" from="23081595#8" to="-1095075524"/>
    <trip id="251" depart="251.00" from="-38766664#2" to="175392012#2"/>
    <trip id="252" depart="252.00" from="-1094732598" to="251492658#8"/>
    <trip id="253" depart="253.00" from="-175392021#1" to="112028500#0"/>
    <trip id="254" depart="254.00" from="-1098776748" to="-405141229#4"/>
    <trip id="255" depart="255.00" from="-36897677#8" to="-38757923#2"/>
    <trip id="256" depart="256.00" from="36907542#0" to="-405141229#4"/>
    <trip id="257" depart="257.00" from="36907531#2" to="38757896#1"/>
    <trip id="258" depart="258.00" from="-36907545#10" to="-1379232589#2"/>
    <trip id="259" depart="259.00" from="-1094730017" to="148016866#1"/>
    <trip id="260" depart="260.00" from="995260042" to="-38758708#0"/>
    <trip id="261" depart="261.00" from="298037893#3" to="36965407#3"/>
    <trip id="262" depart="262.00" from="298037893#6" to="36907536#1"/>
    <trip id="263" depart="263.00" from="52033011#13" to="-36907510#5"/>
    <trip id="264" depart="264.00" from="-1094730020" to="-251492658#7"/>
    <trip id="265" depart="265.00" from="-175392014#3" to="36852351#4"/>
    <trip id="266" depart="266.00" from="175392010#1" to="-36907535#0"/>
    <trip id="267" depart="267.00" from="36897669#0" to="36907545#5"/>
    <trip id="268" depart="268.00" from="-251492658#17" to="23076927#6"/>
    <trip id="269" depart="269.00" from="36907529#4" to="-175392021#2"/>
    <trip id="270" depart="270.00" from="38541581" to="638928393#1"/>
    <trip id="271" depart="271.00" from="-1446452119" to="-1095075520#0"/>
    <trip id="272" depart="272.00" from="-38757898#2" to="36897653#9"/>
    <trip id="273" depart="273.00" from="52244636#1" to="1094460048"/>
    <trip id="274" depart="274.00" from="36897677#4" to="-1361746443#1"/>
    <trip id="275" depart="275.00" from="36897656#23" to="23515292#9"/>
    <trip id="276" depart="276.00" from="-1379232589#11" to="36907547#2"/>
    <trip id="277" depart="277.00" from="38757904#6" to="23030050#0"/>
    <trip id="278" depart="278.00" from="-175392001#1" to="763284659#0"/>
    <trip id="279" depart="279.00" from="36965407#4" to="-38757939#0"/>
    <trip id="280" depart="280.00" from="1094730009" to="-38766664#2"/>
    <trip id="281" depart="281.00" from="1308734871" to="-38757930#1"/>
    <trip id="282" depart="282.00" from="38757904#5" to="38541582#2"/>
    <trip id="283" depart="283.00" from="-1379232589#5" to="627144178#1"/>
    <trip id="284" depart="284.00" from="251492658#16" to="38757895#5"/>
    <trip id="285" depart="285.00" from="36897673#2" to="1098776725"/>
    <trip id="286" depart="286.00" from="36907510#4" to="638928393#3"/>
    <trip id="287" depart="287.00" from="-38541557#0" to="38541568#0"/>
    <trip id="288" depart="288.00" from="1474402823#1" to="1209312206"/>
    <trip id="289" depart="289.00" from="1094732593#1" to="36907510#2"/>
    <trip id="290" depart="290.00" from="-38541555#0" to="38757904#7"/>
    <trip id="291" depart="291.00" from="38757896#0" to="-172851206#0"/>
    <trip id="292" depart="292.00" from="38757923#7" to="-36907575#1"/>
    <trip id="293" depart="293.00" from="111867007#1" to="23081473#1"/>
    <trip id="294" depart="294.00" from="-38762860#3" to="-1095075528"/>
    <trip id="295" depart="295.00" from="38757904#7" to="-36897674#2"/>
    <trip id="296" depart="296.00" from="-36897683#0" to="38541558#6"/>
    <trip id="297" depart="297.00" from="-38757914" to="38757923#2"/>
    <trip id="298" depart="298.00" from="36897669#4" to="-38541582#4"/>
    <trip id="299" depart="299.00" from="-1094460065#1" to="52033011#0"/>
    <trip id="300" depart="300.00" from="-1227750788#0" to="36897683#3"/>
    <trip id="301" depart="301.00" from="1184587999#0" to="36907540#0"/>
    <trip id="302" depart="302.00" from="36897656#23" to="251513712#1"/>
    <trip id="303" depart="303.00" from="1213762900" to="38541557#0"/>
    <trip id="304" depart="304.00" from="-1308629017#1" to="-36907536#4"/>
    <trip id="305" depart="305.00" from="36897656#4" to="-38757907#1"/>
    <trip id="306" depart="306.00" from="175392024#3" to="1148515025#7"/>
    <trip id="307" depart="307.00" from="1379232589#8" to="1095075517"/>
    <trip id="308" depart="308.00" from="36907529#15" to="-38757924#0"/>
    <trip id="309" depart="309.00" from="36897671#1" to="-38541576#0"/>
    <trip id="310" depart="310.00" from="-36907545#0" to="-208745497#1"/>
    <trip id="311" depart="311.00" from="-36897662#2" to="-208745497#0"/>
    <trip id="312" depart="312.00" from="1452617367" to="36907542#2"/>
    <trip id="313" depart="313.00" from="-36897656#21" to="-36907531#0"/>
    <trip id="314" depart="314.00" from="1148515025#7" to="36897704#2"/>
    <trip id="315" depart="315.00" from="763175324#4" to="1379232589#13"/>
    <trip id="316" depart="316.00" from="-38541565#2" to="-175392010#1"/>
    <trip id="317" depart="317.00" from="-36897668#0" to="-36907544"/>
    <trip id="318" depart="318.00" from="-36897653#6" to="-1094730014#0"/>
    <trip id="319" depart="319.00" from="1452617365#0" to="-38541582#0"/>
    <trip id="320" depart="320.00" from="747182858" to="175391972#3"/>
    <trip id="321" depart="321.00" from="36897662#4" to="-23030050#2"/>
    <trip id="322" depart="322.00" from="38757916#1" to="1249876030#0"/>
    <trip id="323" depart="323.00" from="38757917#6" to="175392019#2"/>
    <trip id="324" depart="324.00" from="112028480" to="1098776744"/>
    <trip id="325" depart="325.00" from="-36897656#19" to="-112657835#4"/>
    <trip id="326" depart="326.00" from="462585105#1" to="1165375044"/>
    <trip id="327" depart="327.00" from="38541582#3" to="1094460063"/>
    <trip id="328" depart="328.00" from="-1165323952" to="244304928#2"/>
    <trip id="329" depart="329.00" from="-1098787301#1" to="-251492658#22"/>
    <trip id="330" depart="330.00" from="175392001#1" to="-38757905#2"/>
    <trip id="331" depart="331.00" from="91892803#0" to="-175392024#3"/>
    <trip id="332" depart="332.00" from="36907545#10" to="23076927#5"/>
    <trip id="333" depart="333.00" from="38541555#0" to="-36907542#0"/>
    <trip id="334" depart="334.00" from="1361746443#1" to="1109914958#0"/>
    <trip id="335" depart="335.00" from="1095075520#1" to="38757907#8"/>
    <trip id="336" depart="336.00" from="766406230" to="-38757906#1"/>
    <trip id="337" depart="337.00" from="23081595#6" to="23081473#0"/>
    <trip id="338" depart="338.00" from="36907519" to="52033011#0"/>
    <trip id="339" depart="339.00" from="-36897677#1" to="-36907529#16"/>
    <trip id="340" depart="340.00" from="328836685#2" to="-36897653#5"/>
    <trip id="341" depart="341.00" from="-251492658#7" to="-1361746442"/>
    <trip id="342" depart="342.00" from="-1094460046" to="1109914958#0"/>
    <trip id="343" depart="343.00" from="213042770#1" to="-38757900#2"/>
    <trip id="344" depart="344.00" from="-36907529#14" to="36897674#0"/>
    <trip id="345" depart="345.00" from="36897671#1" to="111867007#0"/>
    <trip id="346" depart="346.00" from="36897656#16" to="38766657#5"/>
    <trip id="347" depart="347.00" from="375964868#6" to="23515292#6"/>
    <trip id="348" depart="348.00" from="328836685#4" to="405141229#2"/>
    <trip id="349" depart="349.00" from="1094460065#2" to="154340361#2"/>
    <trip id="350" depart="350.00" from="28451729" to="38762852#1"/>
    <trip id="351" depart="351.00" from="38757895#3" to="-1249876030#4"/>
    <trip id="352" depart="352.00" from="-251492658#14" to="-38757907#4"/>
    <trip id="353" depart="353.00" from="36907529#6" to="175392015#4"/>
    <trip id="354" depart="354.00" from="-38541570#0" to="-223387678#0"/>
    <trip id="355" depart="355.00" from="36897656#2" to="36897669#3"/>
    <trip id="356" depart="356.00" from="473960699" to="1308725870#3"/>
    <trip id="357" depart="357.00" from="1227750788#1" to="-1379232589#11"/>
    <trip id="358" depart="358.00" from="-1098770385" to="1098770384"/>
    <trip id="359" depart="359.00" from="-38757904#0" to="-38541558#4"/>
    <trip id="360" depart="360.00" from="-1285445378" to="638928392#1"/>
    <trip id="361" depart="361.00" from="38757898#4" to="175392021#1"/>
    <trip id="362" depart="362.00" from="52033011#15" to="995260042"/>
    <trip id="363" depart="363.00" from="36853150" to="-38541574#2"/>
    <trip id="364" depart="364.00" from="-1098770385" to="36907536#5"/>
    <trip id="365" depart="365.00" from="112028499#1" to="298037893#6"/>
    <trip id="366" depart="366.00" from="38762869#2" to="-36897674#1"/>
    <trip id="367" depart="367.00" from="182196323#11" to="251492658#15"/>
    <trip id="368" depart="368.00" from="1222160407" to="-173470557#0"/>
    <trip id="369" depart="369.00" from="-38757919#0" to="-38757926#0"/>
    <trip id="370" depart="370.00" from="36852351#4" to="38757907#4"/>
    <trip id="371" depart="371.00" from="-38757907#0" to="36897656#7"/>
    <trip id="372" depart="372.00" from="-38541570#0" to="498553874#1"/>
    <trip id="373" depart="373.00" from="38541573#0" to="172851206#2"/>
    <trip id="374" depart="374.00" from="1098787293#0" to="-38757911#1"/>
    <trip id="375" depart="375.00" from="-38757904#2" to="688824223#1"/>
    <trip id="376" depart="376.00" from="-410858824#0" to="132191818"/>
    <trip id="377" depart="377.00" from="764329022#2" to="328836685#1"/>
    <trip id="378" depart="378.00" from="148016888#0" to="1094730020"/>
    <trip id="379" depart="379.00" from="-36897656#25" to="-38762869#5"/>
    <trip id="380" depart="380.00" from="36907536#4" to="23515292#6"/>
    <trip id="381" depart="381.00" from="36907540#1" to="-36907516"/>
    <trip id="382" depart="382.00" from="161984942" to="38766666#1"/>
    <trip id="383" depart="383.00" from="1094732599" to="36897669#0"/>
    <trip id="384" depart="384.00" from="-175392001#1" to="688824223#5"/>
    <trip id="385" depart="385.00" from="23076927#6" to="-36907547#5"/>
    <trip id="386" depart="386.00" from="-23515292#3" to="172851206#3"/>
    <trip id="387" depart="387.00" from="172851206#3" to="-175391972#1"/>
    <trip id="388" depart="388.00" from="91890603" to="38762868#3"/>
    <trip id="389" depart="389.00" from="1109914958#2" to="-175392024#1"/>
    <trip id="390" depart="390.00" from="38757897#1" to="1308725870#0"/>
    <trip id="391" depart="391.00" from="36897677#6" to="132191814#1"/>
    <trip id="392" depart="392.00" from="-38541558#2" to="38757898#0"/>
    <trip id="393" depart="393.00" from="763175325#6" to="-36907575#1"/>
    <trip id="394" depart="394.00" from="172851206#1" to="-462585104#0"/>
    <trip id="395" depart="395.00" from="38766656" to="132191814#0"/>
    <trip id="396" depart="396.00" from="38757923#3" to="38757909#1"/>
    <trip id="397" depart="397.00" from="-38541559#0" to="38541553"/>
    <trip id="398" depart="398.00" from="-995260041" to="405141229#3"/>
    <trip id="399" depart="399.00" from="1311251824#0" to="38541581"/>
    <trip id="400" depart="400.00" from="-38541565#2" to="-38757904#1"/>
    <trip id="401" depart="401.00" from="182196323#4" to="995260041"/>
    <trip id="402" depart="402.00" from="1204134314" to="-251492658#21"/>
    <trip id="403" depart="403.00" from="1474402823#2" to="-38757936#1"/>
    <trip id="404" depart="404.00" from="172851206#3" to="154340361#0"/>
    <trip id="405" depart="405.00" from="1098787293#0" to="-38757917#6"/>
    <trip id="406" depart="406.00" from="-36897656#5" to="36897668#0"/>
    <trip id="407" depart="407.00" from="175392015#5" to="-36907545#9"/>
    <trip id="408" depart="408.00" from="36907565" to="-111867014#0"/>
    <trip id="409" depart="409.00" from="36907529#13" to="36897673#0"/>
    <trip id="410" depart="410.00" from="38541572#0" to="-559526188"/>